#======================================================================

# CRYSTAL DATA

#----------------------------------------------------------------------

data_VESTA_phase_1


_pd_phase_name                         'Ba1 O3 Tb1'
_cell_length_a                         6.046(1)
_cell_length_b                         6.046(1)
_cell_length_c                         6.046(1)
_cell_angle_alpha                      60.37(2)
_cell_angle_beta                       60.37(2)
_cell_angle_gamma                      60.37(2)
_symmetry_space_group_name_H-M         'R -3 c'
_symmetry_Int_Tables_number            167

loop_
_symmetry_equiv_pos_as_xyz
   'x, y, z'
   '-x, -y, -z'
   'z, x, y'
   '-z, -x, -y'
   'y, z, x'
   '-y, -z, -x'
   '-y+1/2, -x+1/2, -z+1/2'
   'y+1/2, x+1/2, z+1/2'
   '-x+1/2, -z+1/2, -y+1/2'
   'x+1/2, z+1/2, y+1/2'
   '-z+1/2, -y+1/2, -x+1/2'
   'z+1/2, y+1/2, x+1/2'

loop_
   _atom_site_label
   _atom_site_occupancy
   _atom_site_fract_x
   _atom_site_fract_y
   _atom_site_fract_z
   _atom_site_adp_type
   _atom_site_B_iso_or_equiv
   _atom_site_type_symbol
   Tb1        1.0     0.000000      0.000000      0.000000     Biso  0.240000 Tb
   Ba1        1.0     0.250000      0.250000      0.250000     Biso  0.750000 Ba
   O1         1.0    -0.2876(7)     0.7876(7)     0.250000     Biso  0.890000 O
